#TargetFrameworkVersion=v4.0:PlatformToolSet=v140:EnableManagedIncrementalBuild=false:VCToolArchitecture=Native32Bit:WindowsTargetPlatformVersion=8.1
Debug|x64|C:\Users\Zhitian Qiao\Desktop\DualSPHysics-master\src_mphase\DSPH_v5.0_NNewtonian\VS\|
